/batch
/config,noeldb,1     ! force off writing results to database
*get,_wallstrt,active,,time,wall
! ANSYS input file written by Workbench version 19.2 RELEASE
! File used for geometry attach: D:\Repositories\University\Ansys\Task2\Task2_files\dp0\SYS\DM\SYS.agdb
/title,Task2--Static Structural (A5)
*DIM,_wb_ProjectScratch_dir,string,248
_wb_ProjectScratch_dir(1) = 'D:\Repositories\University\Ansys\Task2\_ProjectScratch\Scr7B8B\'
*DIM,_wb_SolverFiles_dir,string,248
_wb_SolverFiles_dir(1) = 'D:\Repositories\University\Ansys\Task2\Task2_files\dp0\SYS\MECH\'
*DIM,_wb_userfiles_dir,string,248
_wb_userfiles_dir(1) = 'D:\Repositories\University\Ansys\Task2\Task2_files\user_files\'
/com,--- Data in consistent MKS units. See Solving Units in the help system for more information.
/units,MKS
/nopr
/wb,file,start              !  signify a WB generated input file
/prep7
! Turn off shape checking because checks already performed inside WB mesher.
! See help system for more information.
SHPP,OFF,,NOWARN
/nolist
etcon,set             ! allow ANSYS to choose best KEYOP's for 180x elements
/com,*********** Nodes for the whole assembly ***********
nblock,3,,432
(1i9,3e20.9e3)
        1     1.654572945E-01     1.236081243E-01     2.500000000E-02
        2     1.654572945E-01     1.236081243E-01     5.000000000E-02
        3     1.654572945E-01     1.236081243E-01     7.500000000E-02
        4     1.654572945E-01     1.236081243E-01     1.000000000E-01
        5     1.654572945E-01     1.236081243E-01     1.250000000E-01
        6     1.654572945E-01     1.236081243E-01     1.500000000E-01
        7     1.654572945E-01     1.236081243E-01     1.750000000E-01
        8     1.654572945E-01     1.236081243E-01     2.000000000E-01
        9     1.654572945E-01     1.236081243E-01     2.250000000E-01
       10     1.654572945E-01     1.236081243E-01     2.500000000E-01
       11     1.654572945E-01     1.236081243E-01     2.750000000E-01
       12     1.654572945E-01     1.236081243E-01     3.000000000E-01
       13     1.654572945E-01     1.236081243E-01     3.250000000E-01
       14     1.654572945E-01     1.236081243E-01     3.500000000E-01
       15     1.654572945E-01     1.236081243E-01     3.750000000E-01
       16     1.654572945E-01     1.236081243E-01     4.000000000E-01
       17     1.654572945E-01     1.236081243E-01     4.250000000E-01
       18     1.654572945E-01     1.236081243E-01     4.500000000E-01
       19     1.654572945E-01     1.236081243E-01     4.750000000E-01
       20     1.654572945E-01     1.436081243E-01     4.750000000E-01
! ... 374 like lines cut
/wb,elem,start            !  set before creation of elements
/com,*********** Elements for Body 1 "Solid" ***********
et,1,186
keyo,1,2,1          ! set full integration on SOLID186
eblock,19,solid,,40
(19i9)
        1        1        1        1        0        0        0        0       20        0        1       19      125      124      104       20       40       61       60
      203      393      373      202      205      265      306      206      200      267      308      307
        1        1        1        1        0        0        0        0       20        0        2       18       19      104      105       21       20       60       59
      196      202      372      199      204      206      304      209      197      200      307      305
        1        1        1        1        0        0        0        0       20        0        3       17       18      105      106       22       21       59       58
      192      199      374      195      208      209      302      212      193      197      305      303
        1        1        1        1        0        0        0        0       20        0        4       16       17      106      107       23       22       58       57
      188      195      375      191      211      212      300      215      189      193      303      301
        1        1        1        1        0        0        0        0       20        0        5       15       16      107      108       24       23       57       56
      184      191      376      187      214      215      298      218      185      189      301      299
        1        1        1        1        0        0        0        0       20        0        6       14       15      108      109       25       24       56       55
      180      187      377      183      217      218      296      221      181      185      299      297
        1        1        1        1        0        0        0        0       20        0        7       13       14      109      110       26       25       55       54
      176      183      378      179      220      221      294      224      177      181      297      295
        1        1        1        1        0        0        0        0       20        0        8       12       13      110      111       27       26       54       53
      172      179      379      175      223      224      292      227      173      177      295      293
        1        1        1        1        0        0        0        0       20        0        9       11       12      111      112       28       27       53       52
      168      175      380      171      226      227      290      230      169      173      293      291
        1        1        1        1        0        0        0        0       20        0       10       10       11      112      113       29       28       52       51
      164      171      381      167      229      230      288      233      165      169      291      289
! ... 61 like lines cut
!Material Id = {8538B361-BF20-4FBF-93E6-46C0287E0F3B}
/wb,elem,end               !  done creating elements
/com,*********** Send User Defined Coordinate System(s) ***********
csys,0
toffst,273.15,  ! Temperature offset from absolute zero
/com,*********** Set Reference Temperature ***********
tref,22.
/wb,mat,start              !  starting to send materials
/com,*********** Send Materials ***********
Temperature = 'TEMP' ! Temperature
MP,DENS,1,7850,	! kg m^-3
MP,ALPX,1,1.2e-05,	! C^-1
MP,C,1,434,	! J kg^-1 C^-1
MP,KXX,1,60.5,	! W m^-1 C^-1
MP,RSVX,1,1.7e-07,	! kg m^3 A^-2 s^-3
MP,EX,1,210000000000,	! Pa
MP,NUXY,1,0.28,
MP,MURX,1,10000,

/wb,mat,end                !  done sending materials
!************************* Model Summary ********************
!Solid,	Structural Steel,	matid,	1
!************************* End Model Summary ********************
! get the diagonal of the bounding box. Needed later for other things
*get,_xmin,node,,mnloc,x
*get,_ymin,node,,mnloc,y
*get,_zmin,node,,mnloc,z
*get,_xmax,node,,mxloc,x
*get,_ymax,node,,mxloc,y
*get,_zmax,node,,mxloc,z
_ASMDIAG=(_xmax-_xmin)*(_xmax-_xmin)+(_ymax-_ymin)*(_ymax-_ymin)+(_zmax-_zmin)*(_zmax-_zmin)
_ASMDIAG=SQRT(_ASMDIAG)
/wb,contact,start          !  starting to send contact
/wb,contact,end            !  done creating contacts
/golist
/wb,load,start             !  starting to send loads
/com,*********** Fixed Supports ***********
CMBLOCK,_FIXEDSU,NODE,       13
(8i10)
        40        61        82       103       124       125       265       266
       267       308       349       371       393
cmsel,s,_FIXEDSU
d,all,all
nsel,all
/com,*********** Define Force Using Surface Effect Elements ***********
local,12,0,0.,0.,0.,0.,0.,0.
csys,0
et,2,154
eblock,10,,,2
(15i9)
       41        2        2        2       12      123      126       39       41      392      264      262      269
       42        2        2        2       12      126      102       62       39      370      310      263      264
-1
esel,s,type,,2
keyop,2,2,1                ! Apply load in local coordinate system
keyop,2,7,1                ! Use original area so load is constant in large deformation
keyop,2,11,2               ! Use real and not project area
esel,all
/gst,on,on
fini
*get,_numnode,node,0,count
*get,_numelem,elem,0,count
*get, _MAXELEMNUM, elem, 0, NUM, MAX
*get, _MAXNODENUM, node, 0, NUM, MAX
*get, _MAXELEMTYPE, etyp, 0, NUM, MAX
*get, _MAXREALCONST, real, 0, NUM, MAX
/go
/wb,load,end               !  done creating loads
/com,--- Number of total nodes = %_numnode%
/com,--- Number of contact elements = 2
/com,--- Number of spring elements = 0
/com,--- Number of bearing elements = 0
/com,--- Number of solid elements = 40
/com,--- Number of condensed parts = 0
/com,--- Number of total elements = %_numelem%
*get,_wallbsol,active,,time,wall
/com,****************************************************************************
/com,*************************    SOLUTION       ********************************
/com,****************************************************************************
/solu
antype,0                   ! static analysis
eqsl,sparse,,,,,1
cntr,print,1               ! print out contact info and also make no initial contact an error
dmpoption,emat,no             ! Don't combine emat file for DANSYS
dmpoption,esav,no             ! Don't combine esav file for DANSYS
nldiag,cont,iter           ! print out contact info each equilibrium iteration
rescontrol,,none                 ! Do not keep any restart files
/com,****************************************************
/com,******************* SOLVE FOR LS 1 OF 1 ****************
esel,s,type,,2
nsle
sfe,all,1,pres,1,8.32667268468929e-009
sfe,all,2,pres,1,-2000000.00000015
sfe,all,3,pres,1,0.
nsel,all
esel,all
/nopr
/gopr
nsub,1,1,1
time,1.
outres,erase
outres,all,none
outres,nsol,all,
outres,rsol,all
outres,strs,all,
outres,epel,all,
outres,eppl,all,
stabilize,off                   ! Stabilization turned OFF by user
! *********** WB SOLVE COMMAND ***********
! check interactive state
*get,ANSINTER_,active,,int
*if,ANSINTER_,ne,0,then
/eof
*endif
solve
/com *************** Write FE CONNECTORS ********* 
CEWRITE,file,ce,,INTE
/com,****************************************************
/com,*************** FINISHED SOLVE FOR LS 1 *************
*get,_wallasol,active,,time,wall
/nopr
*get,_numnode,node,0,count
*get,_numelem,elem,0,count
*get, _MAXELEMNUM, elem, 0, NUM, MAX
*get, _MAXNODENUM, node, 0, NUM, MAX,,,INTERNAL
*get, _MAXELEMTYPE, etyp, 0, NUM, MAX
*get, _MAXREALCONST, real, 0, NUM, MAX
/gopr
/post1
xmlo,ENCODING,ISO-8859-1
xmlo,parm
/xml,parm,xml
fini
/gopr
*get,_walldone,active,,time,wall
_preptime=(_wallbsol-_wallstrt)*3600
_solvtime=(_wallasol-_wallbsol)*3600
_posttime=(_walldone-_wallasol)*3600
_totaltim=(_walldone-_wallstrt)*3600
/wb,file,end               ! done with WB generated input
