/batch
/config,noeldb,1     ! force off writing results to database
*get,_wallstrt,active,,time,wall
! ANSYS input file written by Workbench version 19.2 RELEASE
! File used for geometry attach: D:\Repositories\University\Ansys\Task3\Task3_files\dp0\SYS\DM\SYS.agdb
/title,Task3--Steady-State Thermal (A5)
*DIM,_wb_ProjectScratch_dir,string,248
_wb_ProjectScratch_dir(1) = 'D:\Repositories\University\Ansys\Task3\_ProjectScratch\Scr6004\'
*DIM,_wb_SolverFiles_dir,string,248
_wb_SolverFiles_dir(1) = 'D:\Repositories\University\Ansys\Task3\Task3_files\dp0\SYS\MECH\'
*DIM,_wb_userfiles_dir,string,248
_wb_userfiles_dir(1) = 'D:\Repositories\University\Ansys\Task3\Task3_files\user_files\'
/com,--- Data in consistent NMM units. See Solving Units in the help system for more information.
/units,MPA
/nopr
/wb,file,start              !  signify a WB generated input file
/prep7
! Turn off shape checking because checks already performed inside WB mesher.
! See help system for more information.
SHPP,OFF,,NOWARN
/nolist
etcon,set             ! allow ANSYS to choose best KEYOP's for 180x elements
/com,*********** Nodes for the whole assembly ***********
nblock,3,,3031
(1i9,3e20.9e3)
        1    -1.487937283E+02    -1.898280593E+01    -2.819572738E-01
        2     1.475071542E+02    -2.723179714E+01    -2.620995883E-01
        3    -1.389370435E+02    -5.653757994E+01    -6.923856631E-15
        4    -1.214690196E+02    -8.790653088E+01     4.209407246E+00
        5    -7.532883648E+01    -1.295984123E+02     5.460579755E+00
        6    -3.519861007E+01    -1.458117205E+02    -1.785678568E-14
        7     3.500606186E+01    -1.457788349E+02    -4.806968102E+00
        8     1.012925202E+02    -1.104940304E+02    -5.558290180E+00
        9    -1.474118954E+02     9.347949360E+00    -2.612180975E+01
       10    -1.468049130E+02     1.035083846E+01     2.900306314E+01
       11     1.476291508E+02     4.027235066E+00    -2.625671767E+01
       12     1.473990067E+02     2.777999791E+01     1.343328973E+00
       13     1.484799626E+02     4.457358227E+00     2.082864993E+01
       14     7.452869700E+00     1.132248907E+02     9.810493801E+01
       15    -1.387778781E-14     1.299038106E+02    -7.500000000E+01
       16    -2.775557562E-14    -3.882285677E+01    -1.448888739E+02
       17    -9.617106669E-01    -5.322477704E+01     1.402362229E+02
       18     9.784311169E+01     5.684787924E+01    -9.846341514E+01
       19    -9.784311169E+01     5.684787924E+01    -9.846341514E+01
       20     1.231949392E+02     1.868944398E+01     8.350875186E+01
! ... 2737 like lines cut
/wb,elem,start            !  set before creation of elements
/com,*********** Elements for Body 1 "Solid" ***********
et,1,87
eblock,19,solid,,1544
(19i9)
        1        1        1        1        0        0        0        0       10        0        1      110      346      315      139     1225     2414     1223     1220
     1471     1470
        1        1        1        1        0        0        0        0       10        0        2      196      363      309      353     1899     2402     1896     1898
     2533     2401
        1        1        1        1        0        0        0        0       10        0        3      103      104      281      427     1168     1178     1171     1173
     1182     2308
        1        1        1        1        0        0        0        0       10        0        4       38      343      349      347      785     2493      787      786
     2491     2507
        1        1        1        1        0        0        0        0       10        0        5      139      346      291      419     1471     2345     1469     1473
     2506     2347
        1        1        1        1        0        0        0        0       10        0        6      158      237      349      345     1618     2135     1623     1622
     2133     2499
        1        1        1        1        0        0        0        0       10        0        7      281      379      427      389     2306     2626     2308     2307
     2624     2662
        1        1        1        1        0        0        0        0       10        0        8       77       93      344      343     1031     1099     1033     1032
     1098     2488
        1        1        1        1        0        0        0        0       10        0        9        3       93      344       77      464     1099      465      462
     1031     1033
        1        1        1        1        0        0        0        0       10        0       10       25       38       92      349      665      783      669      671
      787     1094
! ... 3069 like lines cut
!Material Id = {A0A3864E-1A79-4F8E-8686-B6AEB8D83E56}
/wb,elem,end               !  done creating elements
/com,*********** Send User Defined Coordinate System(s) ***********
csys,0
toffst,273.15,  ! Temperature offset from absolute zero
/wb,mat,start              !  starting to send materials
/com,*********** Send Materials ***********
Temperature = 'TEMP' ! Temperature
MP,DENS,1,7.85e-09,	! tonne mm^-3
MP,ALPX,1,1.2e-05,	! C^-1
MP,C,1,434000000,	! mm^2 s^-2 C^-1
MP,KXX,1,47,	! tonne mm s^-3 C^-1
MP,RSVX,1,0.00017,	! ohm mm
MP,EX,1,200000,	! tonne s^-2 mm^-1
MP,NUXY,1,0.3,
MP,MURX,1,10000,

/wb,mat,end                !  done sending materials
!************************* Model Summary ********************
!Solid,	Structural Steel,	matid,	1
!************************* End Model Summary ********************
! get the diagonal of the bounding box. Needed later for other things
*get,_xmin,node,,mnloc,x
*get,_ymin,node,,mnloc,y
*get,_zmin,node,,mnloc,z
*get,_xmax,node,,mxloc,x
*get,_ymax,node,,mxloc,y
*get,_zmax,node,,mxloc,z
_ASMDIAG=(_xmax-_xmin)*(_xmax-_xmin)+(_ymax-_ymin)*(_ymax-_ymin)+(_zmax-_zmin)*(_zmax-_zmin)
_ASMDIAG=SQRT(_ASMDIAG)
/wb,contact,start          !  starting to send contact
/wb,contact,end            !  done creating contacts
/golist
/wb,load,start             !  starting to send loads
/com,*********** Define Temperature Constraint ***********
CMBLOCK,_CM33   ,NODE,      366
(8i10)
         1         2         3         4         5         6         7         8
         9        10        11        12        13        14        15        16
        17        18        19        20        21        22        23        24
        25        26        27        28        29        30        31        32
        33        34        35        36        37        38        39        40
        41        42        43        44        45        46        47        48
        49        50        51        52        53        54        55        56
        57        58        59        60        61        62        63        64
        65        66        67        68        69        70        71        72
        73        74        75        76        77        78        79        80
        81        82        83        84        85        86        87        88
        89        90        91        92        93       439       440       441
       442       443       448       449       450       451       452       453
       460       461       462       463       464       467       468       469
       470       471       476       477       478       479       483       484
       485       486       487       493       494       495       496       497
       503       504       505       506       507       508       515       516
       517       518       519       524       525       526       527       532
       533       534       535       536       539       540       541       542
       546       547       550       551       552       553       554       555
! ... 26 like lines cut
fcum,add                   ! add nodal forces up (needed in case have loads on the same edge,vertex)
fcum                       ! reset default on fcum command since done sending WB F loads
/com,*********** Create "Convection" ***********
et,2,152
eblock,10,,,494
(15i9)
     1545        2        2        2        0      165      234      242      242     1674     2111      242     1675
     1546        2        2        2        0      231      281      261      261     2096     2233      261     2095
     1547        2        2        2        0      133      189      271      271     1415     1853      271     1419
     1548        2        2        2        0      256      325      292      292     2213     2349      292     2212
     1549        2        2        2        0      168      223      259      259     1697     2052      259     1700
     1550        2        2        2        0      148      324      181      181     1539     1800      181     1537
     1551        2        2        2        0      244      318      339      339     2162     2424      339     2163
     1552        2        2        2        0      127      319      263      263     1367     2243      263     1365
     1553        2        2        2        0      116      169      323      323     1271     1709      323     1274
     1554        2        2        2        0      169      251      262      262     1705     2189      262     1706
     1555        2        2        2        0      229      272      297      297     2083     2273      297     2084
     1556        2        2        2        0      232      290      314      314     2099     2339      314     2100
     1557        2        2        2        0      175      318      245      245     1756     2168      245     1753
     1558        2        2        2        0      163      218      235      235     1656     2022      235     1657
     1559        2        2        2        0      161      316      290      290     1642     2340      290     1641
     1560        2        2        2        0      141      207      192      192     1481     1871      192     1480
     1561        2        2        2        0      141      241      220      220     1484     2033      220     1482
     1562        2        2        2        0      126      170      286      286     1355     1717      286     1358
     1563        2        2        2        0      154      221      223      223     1583     2041      223     1585
     1564        2        2        2        0      216      332      306      306     2016     2391      306     2014
! ... 475 like lines cut
esel,s,type,,2
keyop,2,8,2.
keyop,2,13,0.
esel,all
/com,***************** Define Uniform Initial temperature ***************
tunif,22.
/gst,on,on
fini
*get,_numnode,node,0,count
*get,_numelem,elem,0,count
*get, _MAXELEMNUM, elem, 0, NUM, MAX
*get, _MAXNODENUM, node, 0, NUM, MAX
*get, _MAXELEMTYPE, etyp, 0, NUM, MAX
*get, _MAXREALCONST, real, 0, NUM, MAX
/go
/wb,load,end               !  done creating loads
/com,--- Number of total nodes = %_numnode%
/com,--- Number of contact elements = 494
/com,--- Number of spring elements = 0
/com,--- Number of bearing elements = 0
/com,--- Number of solid elements = 1544
/com,--- Number of condensed parts = 0
/com,--- Number of total elements = %_numelem%
*get,_wallbsol,active,,time,wall
/com,****************************************************************************
/com,*************************    SOLUTION       ********************************
/com,****************************************************************************
/solu
antype,0                   ! static analysis
!eqsl,sparse               ! using sparse solver which is default so no eqsl command needed
cntr,print,1               ! print out contact info and also make no initial contact an error
rescontrol,,none                 ! Do not keep any restart files
dmpoption,emat,no             ! Don't combine emat file for DANSYS
dmpoption,esav,no             ! Don't combine esav file for DANSYS
/com,****************************************************
/com,******************* SOLVE FOR LS 1 OF 1 ****************
d,_CM33,temp,100.
esel,s,type,,2
nsle
sf,all,conv,40.,25.
nsel,all
esel,all
autots,on
nsub,1,10,1
time,1.
outres,erase
outres,all,none
outres,nsol,all
outres,rsol,all
outres,fflux,all
/nopr
esel,s,type,,2
cm,_elmisc,elem
esel,all
/gopr
outres,misc,all,_elmisc
cnvtol,heat,,.001,,1.e-003    ! Program Controlled. Set MINREF equivalent of 1e-6 Watts
! *********** WB SOLVE COMMAND ***********
! check interactive state
*get,ANSINTER_,active,,int
*if,ANSINTER_,ne,0,then
/eof
*endif
solve
/com *************** Write FE CONNECTORS ********* 
CEWRITE,file,ce,,INTE
/com,****************************************************
/com,*************** FINISHED SOLVE FOR LS 1 *************
*get,_wallasol,active,,time,wall
/post1
xmlo,ENCODING,ISO-8859-1
xmlo,parm
/xml,parm,xml
fini
/gopr
*get,_walldone,active,,time,wall
_preptime=(_wallbsol-_wallstrt)*3600
_solvtime=(_wallasol-_wallbsol)*3600
_posttime=(_walldone-_wallasol)*3600
_totaltim=(_walldone-_wallstrt)*3600
/wb,file,end               ! done with WB generated input
